CIM/ieee8500_base.glm



object capacitor {
  name "cap_capbank0c";
  parent "nd_r42246";
  phases CN;
  phases_connected CN;
  cap_nominal_voltage 7200.00;
  capacitor_C 400000;
  control MANUAL; // VAR;
  VAr_set_low -300000;
  VAr_set_high 200000;
  remote_sense "line_cap_3c";
  pt_phase C;
  control_level BANK;
  dwell_time 102.000;
}
object capacitor {
  name "cap_capbank2a";
  parent "nd_r20185";
  phases AN;
  phases_connected AN;
  cap_nominal_voltage 7200.00;
  capacitor_A 300000;
  control MANUAL; // VAR;
  VAr_set_low -225000;
  VAr_set_high 150000;
  remote_sense "line_cap_1a";
  pt_phase A;
  control_level BANK;
  dwell_time 100.000;
}
object capacitor {
  name "cap_capbank0a";
  parent "nd_r42246";
  phases AN;
  phases_connected AN;
  cap_nominal_voltage 7200.00;
  capacitor_A 400000;
  control MANUAL; // VAR;
  VAr_set_low -300000;
  VAr_set_high 200000;
  remote_sense "line_cap_3a";
  pt_phase A;
  control_level BANK;
  dwell_time 100.000;
}
object capacitor {
  name "cap_capbank3";
  parent "nd_r18242";
  phases ABCN;
  phases_connected ABCN;
  cap_nominal_voltage 7200.20;
  capacitor_A 300000;
  capacitor_B 300000;
  capacitor_C 300000;
}
object capacitor {
  name "cap_capbank2c";
  parent "nd_r20185";
  phases CN;
  phases_connected CN;
  cap_nominal_voltage 7200.00;
  capacitor_C 300000;
  control MANUAL; // VAR;
  VAr_set_low -225000;
  VAr_set_high 150000;
  remote_sense "line_cap_1c";
  pt_phase C;
  control_level BANK;
  dwell_time 102.000;
}
object capacitor {
  name "cap_capbank2b";
  parent "nd_r20185";
  phases BN;
  phases_connected BN;
  cap_nominal_voltage 7200.00;
  capacitor_B 300000;
  control MANUAL; // VAR;
  VAr_set_low -225000;
  VAr_set_high 150000;
  remote_sense "line_cap_1b";
  pt_phase B;
  control_level BANK;
  dwell_time 101.000;
}
object capacitor {
  name "cap_capbank1a";
  parent "nd_r42247";
  phases AN;
  phases_connected AN;
  cap_nominal_voltage 7200.00;
  capacitor_A 300000;
  control MANUAL; // VAR;
  VAr_set_low -225000;
  VAr_set_high 150000;
  remote_sense "line_cap_2a";
  pt_phase A;
  control_level BANK;
  dwell_time 100.000;
}
object capacitor {
  name "cap_capbank1c";
  parent "nd_r42247";
  phases CN;
  phases_connected CN;
  cap_nominal_voltage 7200.00;
  capacitor_C 300000;
  control MANUAL; // VAR;
  VAr_set_low -225000;
  VAr_set_high 150000;
  remote_sense "line_cap_2c";
  pt_phase C;
  control_level BANK;
  dwell_time 102.000;
}
object capacitor {
  name "cap_capbank1b";
  parent "nd_r42247";
  phases BN;
  phases_connected BN;
  cap_nominal_voltage 7200.00;
  capacitor_B 300000;
  control MANUAL; // VAR;
  VAr_set_low -225000;
  VAr_set_high 150000;
  remote_sense "line_cap_2b";
  pt_phase B;
  control_level BANK;
  dwell_time 101.000;
}
object capacitor {
  name "cap_capbank0b";
  parent "nd_r42246";
  phases BN;
  phases_connected BN;
  cap_nominal_voltage 7200.00;
  capacitor_B 400000;
  control MANUAL; // VAR;
  VAr_set_low -300000;
  VAr_set_high 200000;
  remote_sense "line_cap_3b";
  pt_phase B;
  control_level BANK;
  dwell_time 101.000;
}

object transformer_configuration {
  name "xcon_cimxfmrcode_t5260640c";
  connect_type SINGLE_PHASE_CENTER_TAPPED;
  primary_voltage 7200.00;
  secondary_voltage 120.000;
  power_rating 15.0000;
  // the default split puts 50% of R and 80% of X on the H branch
  // resistance 0.0120000;
  // reactance 0.0204000;
  impedance 0.00600000+0.0136000j;
  impedance1 0.0120000+0.00680000j;
  impedance2 0.0120000+0.00680000j;
  shunt_resistance 500.000;
  shunt_reactance 4.16667;
}
object transformer_configuration {
  name "xcon_cimxfmrcode_t5247059a";
  connect_type SINGLE_PHASE_CENTER_TAPPED;
  primary_voltage 7200.00;
  secondary_voltage 120.000;
  power_rating 25.0000;
  // the default split puts 50% of R and 80% of X on the H branch
  // resistance 0.0120000;
  // reactance 0.0204000;
  impedance 0.00600000+0.0136000j;
  impedance1 0.0120000+0.00680000j;
  impedance2 0.0120000+0.00680000j;
  shunt_resistance 500.000;
  shunt_reactance 6.94444;
}
object transformer_configuration {
  name "xcon_cimxfmrcode_t21249626b";
  connect_type SINGLE_PHASE_CENTER_TAPPED;
  primary_voltage 7200.00;
  secondary_voltage 120.000;
  power_rating 15.0000;
  // the default split puts 50% of R and 80% of X on the H branch
  // resistance 0.0120000;
  // reactance 0.0204000;
  impedance 0.00600000+0.0136000j;
  impedance1 0.0120000+0.00680000j;
  impedance2 0.0120000+0.00680000j;
  shunt_resistance 500.000;
  shunt_reactance 4.16667;
}
object transformer_configuration {
  name "xcon_cimxfmrcode_t5338931c";
  connect_type SINGLE_PHASE_CENTER_TAPPED;
  primary_voltage 7200.00;
  secondary_voltage 120.000;
  power_rating 37.5000;
  // the default split puts 50% of R and 80% of X on the H branch
  // resistance 0.0120000;
  // reactance 0.0204000;
  impedance 0.00600000+0.0136000j;
  impedance1 0.0120000+0.00680000j;
  impedance2 0.0120000+0.00680000j;
  shunt_resistance 500.000;
  shunt_reactance 10.4167;
}
object transformer_configuration {
  name "xcon_cimxfmrcode_t5337646b";
  connect_type SINGLE_PHASE_CENTER_TAPPED;
  primary_voltage 7200.00;
  secondary_voltage 120.000;
  power_rating 25.0000;
  // the default split puts 50% of R and 80% of X on the H branch
  // resistance 0.0120000;
  // reactance 0.0204000;
  impedance 0.00600000+0.0136000j;
  impedance1 0.0120000+0.00680000j;
  impedance2 0.0120000+0.00680000j;
  shunt_resistance 500.000;
  shunt_reactance 6.94444;
}
object transformer_configuration {
  name "xcon_cimxfmrcode_t21397005a";
  connect_type SINGLE_PHASE_CENTER_TAPPED;
  primary_voltage 7200.00;
  secondary_voltage 120.000;
  power_rating 37.5000;
  // the default split puts 50% of R and 80% of X on the H branch
  // resistance 0.0120000;
  // reactance 0.0204000;
  impedance 0.00600000+0.0136000j;
  impedance1 0.0120000+0.00680000j;
  impedance2 0.0120000+0.00680000j;
  shunt_resistance 500.000;
  shunt_reactance 10.4167;
}
object transformer_configuration {
  name "xcon_cimxfmrcode_t226029836a";
  connect_type SINGLE_PHASE_CENTER_TAPPED;
  primary_voltage 7200.00;
  secondary_voltage 120.000;
  power_rating 15.0000;
  // the default split puts 50% of R and 80% of X on the H branch
  // resistance 0.0120000;
  // reactance 0.0204000;
  impedance 0.00600000+0.0136000j;
  impedance1 0.0120000+0.00680000j;
  impedance2 0.0120000+0.00680000j;
  shunt_resistance 500.000;
  shunt_reactance 4.16667;
}
object transformer_configuration {
  name "xcon_cimxfmrcode_t5356810c";
  connect_type SINGLE_PHASE_CENTER_TAPPED;
  primary_voltage 7200.00;
  secondary_voltage 120.000;
  power_rating 10.0000;
  // the default split puts 50% of R and 80% of X on the H branch
  // resistance 0.0120000;
  // reactance 0.0204000;
  impedance 0.00600000+0.0136000j;
  impedance1 0.0120000+0.00680000j;
  impedance2 0.0120000+0.00680000j;
  shunt_resistance 500.000;
  shunt_reactance 2.77778;
}
object transformer_configuration {
  name "xcon_cimxfmrcode_t5260594a";
  connect_type SINGLE_PHASE_CENTER_TAPPED;
  primary_voltage 7200.00;
  secondary_voltage 120.000;
  power_rating 10.0000;
  // the default split puts 50% of R and 80% of X on the H branch
  // resistance 0.0120000;
  // reactance 0.0204000;
  impedance 0.00600000+0.0136000j;
  impedance1 0.0120000+0.00680000j;
  impedance2 0.0120000+0.00680000j;
  shunt_resistance 500.000;
  shunt_reactance 2.77778;
}
object transformer_configuration {
  name "xcon_cimxfmrcode_t228446184a";
  connect_type SINGLE_PHASE_CENTER_TAPPED;
  primary_voltage 7200.00;
  secondary_voltage 120.000;
  power_rating 25.0000;
  // the default split puts 50% of R and 80% of X on the H branch
  // resistance 0.0120000;
  // reactance 0.0204000;
  impedance 0.00600000+0.0136000j;
  impedance1 0.0120000+0.00680000j;
  impedance2 0.0120000+0.00680000j;
  shunt_resistance 500.000;
  shunt_reactance 6.94444;
}
object transformer_configuration {
  name "xcon_cimxfmrcode_t5355606b";
  connect_type SINGLE_PHASE_CENTER_TAPPED;
  primary_voltage 7200.00;
  secondary_voltage 120.000;
  power_rating 15.0000;
  // the default split puts 50% of R and 80% of X on the H branch
  // resistance 0.0120000;
  // reactance 0.0204000;
  impedance 0.00600000+0.0136000j;
  impedance1 0.0120000+0.00680000j;
  impedance2 0.0120000+0.00680000j;
  shunt_resistance 500.000;
  shunt_reactance 4.16667;
}
object transformer_configuration {
  name "xcon_cimxfmrcode_t21381118b";
  connect_type SINGLE_PHASE_CENTER_TAPPED;
  primary_voltage 7200.00;
  secondary_voltage 120.000;
  power_rating 15.0000;
  // the default split puts 50% of R and 80% of X on the H branch
  // resistance 0.0120000;
  // reactance 0.0204000;
  impedance 0.00600000+0.0136000j;
  impedance1 0.0120000+0.00680000j;
  impedance2 0.0120000+0.00680000j;
  shunt_resistance 500.000;
  shunt_reactance 4.16667;
}
object transformer_configuration {
  name "xcon_cimxfmrcode_t5138769a";
  connect_type SINGLE_PHASE_CENTER_TAPPED;
  primary_voltage 7200.00;
  secondary_voltage 120.000;
  power_rating 10.0000;
  // the default split puts 50% of R and 80% of X on the H branch
  // resistance 0.0120000;
  // reactance 0.0204000;
  impedance 0.00600000+0.0136000j;
  impedance1 0.0120000+0.00680000j;
  impedance2 0.0120000+0.00680000j;
  shunt_resistance 500.000;
  shunt_reactance 2.77778;
}
object transformer_configuration {
  name "xcon_cimxfmrcode_t5338915c";
  connect_type SINGLE_PHASE_CENTER_TAPPED;
  primary_voltage 7200.00;
  secondary_voltage 120.000;
  power_rating 15.0000;
  // the default split puts 50% of R and 80% of X on the H branch
  // resistance 0.0120000;
  // reactance 0.0204000;
  impedance 0.00600000+0.0136000j;
  impedance1 0.0120000+0.00680000j;
  impedance2 0.0120000+0.00680000j;
  shunt_resistance 500.000;
  shunt_reactance 4.16667;
}
object transformer_configuration {
  name "xcon_cimxfmrcode_t5337675a";
  connect_type SINGLE_PHASE_CENTER_TAPPED;
  primary_voltage 7200.00;
  secondary_voltage 120.000;
  power_rating 25.0000;
  // the default split puts 50% of R and 80% of X on the H branch
  // resistance 0.0120000;
  // reactance 0.0204000;
  impedance 0.00600000+0.0136000j;
  impedance1 0.0120000+0.00680000j;
  impedance2 0.0120000+0.00680000j;
  shunt_resistance 500.000;
  shunt_reactance 6.94444;
}
object transformer_configuration {
  name "xcon_cimxfmrcode_t28150172a";
  connect_type SINGLE_PHASE_CENTER_TAPPED;
  primary_voltage 7200.00;
  secondary_voltage 120.000;
  power_rating 25.0000;
  // the default split puts 50% of R and 80% of X on the H branch
  // resistance 0.0120000;
  // reactance 0.0204000;
  impedance 0.00600000+0.0136000j;
  impedance1 0.0120000+0.00680000j;
  impedance2 0.0120000+0.00680000j;
  shunt_resistance 500.000;
  shunt_reactance 6.94444;
}
object transformer_configuration {
  name "xcon_cimxfmrcode_t5260463b";
  connect_type SINGLE_PHASE_CENTER_TAPPED;
  primary_voltage 7200.00;
  secondary_voltage 120.000;
  power_rating 15.0000;
  // the default split puts 50% of R and 80% of X on the H branch
  // resistance 0.0120000;
  // reactance 0.0204000;
  impedance 0.00600000+0.0136000j;
  impedance1 0.0120000+0.00680000j;
  impedance2 0.0120000+0.00680000j;
  shunt_resistance 500.000;
  shunt_reactance 4.16667;
}
object transformer_configuration {
  name "xcon_cimxfmrcode_t5138720a";
  connect_type SINGLE_PHASE_CENTER_TAPPED;
  primary_voltage 7200.00;
  secondary_voltage 120.000;
  power_rating 25.0000;
  // the default split puts 50% of R and 80% of X on the H branch
  // resistance 0.0120000;
  // reactance 0.0204000;
  impedance 0.00600000+0.0136000j;
  impedance1 0.0120000+0.00680000j;
  impedance2 0.0120000+0.00680000j;
  shunt_resistance 500.000;
  shunt_reactance 6.94444;
}
object transformer_configuration {
  name "xcon_cimxfmrcode_t5293663c";
  connect_type SINGLE_PHASE_CENTER_TAPPED;
  primary_voltage 7200.00;
  secondary_voltage 120.000;
  power_rating 15.0000;
  // the default split puts 50% of R and 80% of X on the H branch
  // resistance 0.0120000;
  // reactance 0.0204000;
  impedance 0.00600000+0.0136000j;
  impedance1 0.0120000+0.00680000j;
  impedance2 0.0120000+0.00680000j;
  shunt_resistance 500.000;
  shunt_reactance 4.16667;
}
object transformer_configuration {
  name "xcon_cimxfmrcode_t2223661373a";
  connect_type SINGLE_PHASE_CENTER_TAPPED;
  primary_voltage 7200.00;
  secondary_voltage 120.000;
  power_rating 25.0000;
  // the default split puts 50% of R and 80% of X on the H branch
  // resistance 0.0120000;
  // reactance 0.0204000;
  impedance 0.00600000+0.0136000j;
  impedance1 0.0120000+0.00680000j;
  impedance2 0.0120000+0.00680000j;
  shunt_resistance 500.000;
  shunt_reactance 6.94444;
}
object transformer_configuration {
  name "xcon_cimxfmrcode_t2224237653a";
  connect_type SINGLE_PHASE_CENTER_TAPPED;
  primary_voltage 7200.00;
  secondary_voltage 120.000;
  power_rating 37.5000;
  // the default split puts 50% of R and 80% of X on the H branch
  // resistance 0.0120000;
  // reactance 0.0204000;
  impedance 0.00600000+0.0136000j;
  impedance1 0.0120000+0.00680000j;
  impedance2 0.0120000+0.00680000j;
  shunt_resistance 500.000;
  shunt_reactance 10.4167;
}
object transformer_configuration {
  name "xcon_cimxfmrcode_t5223658a";
  connect_type SINGLE_PHASE_CENTER_TAPPED;
  primary_voltage 7200.00;
  secondary_voltage 120.000;
  power_rating 5.00000;
  // the default split puts 50% of R and 80% of X on the H branch
  // resistance 0.0120000;
  // reactance 0.0204000;
  impedance 0.00600000+0.0136000j;
  impedance1 0.0120000+0.00680000j;
  impedance2 0.0120000+0.00680000j;
  shunt_resistance 500.000;
  shunt_reactance 1.38889;
}
object transformer_configuration {
  name "xcon_cimxfmrcode_t5138798b";
  connect_type SINGLE_PHASE_CENTER_TAPPED;
  primary_voltage 7200.00;
  secondary_voltage 120.000;
  power_rating 15.0000;
  // the default split puts 50% of R and 80% of X on the H branch
  // resistance 0.0120000;
  // reactance 0.0204000;
  impedance 0.00600000+0.0136000j;
  impedance1 0.0120000+0.00680000j;
  impedance2 0.0120000+0.00680000j;
  shunt_resistance 500.000;
  shunt_reactance 4.16667;
}
object transformer_configuration {
  name "xcon_cimxfmrcode_t5338984a";
  connect_type SINGLE_PHASE_CENTER_TAPPED;
  primary_voltage 7200.00;
  secondary_voltage 120.000;
  power_rating 25.0000;
  // the default split puts 50% of R and 80% of X on the H branch
  // resistance 0.0120000;
  // reactance 0.0204000;
  impedance 0.00600000+0.0136000j;
  impedance1 0.0120000+0.00680000j;
  impedance2 0.0120000+0.00680000j;
  shunt_resistance 500.000;
  shunt_reactance 6.94444;
}
object transformer_configuration {
  name "xcon_cimxfmrcode_t21398536a";
  connect_type SINGLE_PHASE_CENTER_TAPPED;
  primary_voltage 7200.00;
  secondary_voltage 120.000;
  power_rating 15.0000;
  // the default split puts 50% of R and 80% of X on the H branch
  // resistance 0.0120000;
  // reactance 0.0204000;
  impedance 0.00600000+0.0136000j;
  impedance1 0.0120000+0.00680000j;
  impedance2 0.0120000+0.00680000j;
  shunt_resistance 500.000;
  shunt_reactance 4.16667;
}
object transformer_configuration {
  name "xcon_cimxfmrcode_t226010605c";
  connect_type SINGLE_PHASE_CENTER_TAPPED;
  primary_voltage 7200.00;
  secondary_voltage 120.000;
  power_rating 15.0000;
  // the default split puts 50% of R and 80% of X on the H branch
  // resistance 0.0120000;
  // reactance 0.0204000;
  impedance 0.00600000+0.0136000j;
  impedance1 0.0120000+0.00680000j;
  impedance2 0.0120000+0.00680000j;
  shunt_resistance 500.000;
  shunt_reactance 4.16667;
}
object transformer_configuration {
  name "xcon_cimxfmrcode_t5293521b";
  connect_type SINGLE_PHASE_CENTER_TAPPED;
  primary_voltage 7200.00;
  secondary_voltage 120.000;
  power_rating 10.0000;
  // the default split puts 50% of R and 80% of X on the H branch
  // resistance 0.0120000;
  // reactance 0.0204000;
  impedance 0.00600000+0.0136000j;
  impedance1 0.0120000+0.00680000j;
  impedance2 0.0120000+0.00680000j;
  shunt_resistance 500.000;
  shunt_reactance 2.77778;
}
object transformer_configuration {
  name "xcon_cimxfmrcode_t5323264b";
  connect_type SINGLE_PHASE_CENTER_TAPPED;
  primary_voltage 7200.00;
  secondary_voltage 120.000;
  power_rating 50.0000;
  // the default split puts 50% of R and 80% of X on the H branch
  // resistance 0.0120000;
  // reactance 0.0204000;
  impedance 0.00600000+0.0136000j;
  impedance1 0.0120000+0.00680000j;
  impedance2 0.0120000+0.00680000j;
  shunt_resistance 500.000;
  shunt_reactance 13.8889;
}
object transformer_configuration {
  name "xcon_cimxfmrcode_t5337650a";
  connect_type SINGLE_PHASE_CENTER_TAPPED;
  primary_voltage 7200.00;
  secondary_voltage 120.000;
  power_rating 15.0000;
  // the default split puts 50% of R and 80% of X on the H branch
  // resistance 0.0120000;
  // reactance 0.0204000;
  impedance 0.00600000+0.0136000j;
  impedance1 0.0120000+0.00680000j;
  impedance2 0.0120000+0.00680000j;
  shunt_resistance 500.000;
  shunt_reactance 4.16667;
}
object transformer_configuration {
  name "xcon_cimxfmrcode_t5302370b";
  connect_type SINGLE_PHASE_CENTER_TAPPED;
  primary_voltage 7200.00;
  secondary_voltage 120.000;
  power_rating 25.0000;
  // the default split puts 50% of R and 80% of X on the H branch
  // resistance 0.0120000;
  // reactance 0.0204000;
  impedance 0.00600000+0.0136000j;
  impedance1 0.0120000+0.00680000j;
  impedance2 0.0120000+0.00680000j;
  shunt_resistance 500.000;
  shunt_reactance 6.94444;
}
object transformer_configuration {
  name "xcon_cimxfmrcode_t5260561c";
  connect_type SINGLE_PHASE_CENTER_TAPPED;
  primary_voltage 7200.00;
  secondary_voltage 120.000;
  power_rating 25.0000;
  // the default split puts 50% of R and 80% of X on the H branch
  // resistance 0.0120000;
  // reactance 0.0204000;
  impedance 0.00600000+0.0136000j;
  impedance1 0.0120000+0.00680000j;
  impedance2 0.0120000+0.00680000j;
  shunt_resistance 500.000;
  shunt_reactance 6.94444;
}
object transformer_configuration {
  name "xcon_cimxfmrcode_t21031684a";
  connect_type SINGLE_PHASE_CENTER_TAPPED;
  primary_voltage 7200.00;
  secondary_voltage 120.000;
  power_rating 25.0000;
  // the default split puts 50% of R and 80% of X on the H branch
  // resistance 0.0120000;
  // reactance 0.0204000;
  impedance 0.00600000+0.0136000j;
  impedance1 0.0120000+0.00680000j;
  impedance2 0.0120000+0.00680000j;
  shunt_resistance 500.000;
  shunt_reactance 6.94444;
}
object transformer_configuration {
  name "xcon_cimxfmrcode_t5260542a";
  connect_type SINGLE_PHASE_CENTER_TAPPED;
  primary_voltage 7200.00;
  secondary_voltage 120.000;
  power_rating 25.0000;
  // the default split puts 50% of R and 80% of X on the H branch
  // resistance 0.0120000;
  // reactance 0.0204000;
  impedance 0.00600000+0.0136000j;
  impedance1 0.0120000+0.00680000j;
  impedance2 0.0120000+0.00680000j;
  shunt_resistance 500.000;
  shunt_reactance 6.94444;
}
object transformer_configuration {
  name "xcon_cimxfmrcode_t5302508c";
  connect_type SINGLE_PHASE_CENTER_TAPPED;
  primary_voltage 7200.00;
  secondary_voltage 120.000;
  power_rating 25.0000;
  // the default split puts 50% of R and 80% of X on the H branch
  // resistance 0.0120000;
  // reactance 0.0204000;
  impedance 0.00600000+0.0136000j;
  impedance1 0.0120000+0.00680000j;
  impedance2 0.0120000+0.00680000j;
  shunt_resistance 500.000;
  shunt_reactance 6.94444;
}
object transformer_configuration {
  name "xcon_cimxfmrcode_t5293658c";
  connect_type SINGLE_PHASE_CENTER_TAPPED;
  primary_voltage 7200.00;
  secondary_voltage 120.000;
  power_rating 50.0000;
  // the default split puts 50% of R and 80% of X on the H branch
  // resistance 0.0120000;
  // reactance 0.0204000;
  impedance 0.00600000+0.0136000j;
  impedance1 0.0120000+0.00680000j;
  impedance2 0.0120000+0.00680000j;
  shunt_resistance 500.000;
  shunt_reactance 13.8889;
}
object transformer_configuration {
  name "xcon_cimxfmrcode_t5337712c";
  connect_type SINGLE_PHASE_CENTER_TAPPED;
  primary_voltage 7200.00;
  secondary_voltage 120.000;
  power_rating 15.0000;
  // the default split puts 50% of R and 80% of X on the H branch
  // resistance 0.0120000;
  // reactance 0.0204000;
  impedance 0.00600000+0.0136000j;
  impedance1 0.0120000+0.00680000j;
  impedance2 0.0120000+0.00680000j;
  shunt_resistance 500.000;
  shunt_reactance 4.16667;
}
object transformer_configuration {
  name "xcon_cimxfmrcode_t5337688b";
  connect_type SINGLE_PHASE_CENTER_TAPPED;
  primary_voltage 7200.00;
  secondary_voltage 120.000;
  power_rating 15.0000;
  // the default split puts 50% of R and 80% of X on the H branch
  // resistance 0.0120000;
  // reactance 0.0204000;
  impedance 0.00600000+0.0136000j;
  impedance1 0.0120000+0.00680000j;
  impedance2 0.0120000+0.00680000j;
  shunt_resistance 500.000;
  shunt_reactance 4.16667;
}
object transformer_configuration {
  name "xcon_cimxfmrcode_t5207290a";
  connect_type SINGLE_PHASE_CENTER_TAPPED;
  primary_voltage 7200.00;
  secondary_voltage 120.000;
  power_rating 25.0000;
  // the default split puts 50% of R and 80% of X on the H branch
  // resistance 0.0120000;
  // reactance 0.0204000;
  impedance 0.00600000+0.0136000j;
  impedance1 0.0120000+0.00680000j;
  impedance2 0.0120000+0.00680000j;
  shunt_resistance 500.000;
  shunt_reactance 6.94444;
}
object transformer_configuration {
  name "xcon_cimxfmrcode_t5260607b";
  connect_type SINGLE_PHASE_CENTER_TAPPED;
  primary_voltage 7200.00;
  secondary_voltage 120.000;
  power_rating 37.5000;
  // the default split puts 50% of R and 80% of X on the H branch
  // resistance 0.0120000;
  // reactance 0.0204000;
  impedance 0.00600000+0.0136000j;
  impedance1 0.0120000+0.00680000j;
  impedance2 0.0120000+0.00680000j;
  shunt_resistance 500.000;
  shunt_reactance 10.4167;
}
object transformer_configuration {
  name "xcon_cimxfmrcode_t5356800a";
  connect_type SINGLE_PHASE_CENTER_TAPPED;
  primary_voltage 7200.00;
  secondary_voltage 120.000;
  power_rating 25.0000;
  // the default split puts 50% of R and 80% of X on the H branch
  // resistance 0.0120000;
  // reactance 0.0204000;
  impedance 0.00600000+0.0136000j;
  impedance1 0.0120000+0.00680000j;
  impedance2 0.0120000+0.00680000j;
  shunt_resistance 500.000;
  shunt_reactance 6.94444;
}
object transformer_configuration {
  name "xcon_cimxfmrcode_t5260494b";
  connect_type SINGLE_PHASE_CENTER_TAPPED;
  primary_voltage 7200.00;
  secondary_voltage 120.000;
  power_rating 37.5000;
  // the default split puts 50% of R and 80% of X on the H branch
  // resistance 0.0120000;
  // reactance 0.0204000;
  impedance 0.00600000+0.0136000j;
  impedance1 0.0120000+0.00680000j;
  impedance2 0.0120000+0.00680000j;
  shunt_resistance 500.000;
  shunt_reactance 10.4167;
}
object transformer_configuration {
  name "xcon_cimxfmrcode_t5218474a";
  connect_type SINGLE_PHASE_CENTER_TAPPED;
  primary_voltage 7200.00;
  secondary_voltage 120.000;
  power_rating 50.0000;
  // the default split puts 50% of R and 80% of X on the H branch
  // resistance 0.0120000;
  // reactance 0.0204000;
  impedance 0.00600000+0.0136000j;
  impedance1 0.0120000+0.00680000j;
  impedance2 0.0120000+0.00680000j;
  shunt_resistance 500.000;
  shunt_reactance 13.8889;
}
object transformer_configuration {
  name "xcon_cimxfmrcode_t5302812c";
  connect_type SINGLE_PHASE_CENTER_TAPPED;
  primary_voltage 7200.00;
  secondary_voltage 120.000;
  power_rating 25.0000;
  // the default split puts 50% of R and 80% of X on the H branch
  // resistance 0.0120000;
  // reactance 0.0204000;
  impedance 0.00600000+0.0136000j;
  impedance1 0.0120000+0.00680000j;
  impedance2 0.0120000+0.00680000j;
  shunt_resistance 500.000;
  shunt_reactance 6.94444;
}
object transformer_configuration {
  name "xcon_cimxfmrcode_t5138560a";
  connect_type SINGLE_PHASE_CENTER_TAPPED;
  primary_voltage 7200.00;
  secondary_voltage 120.000;
  power_rating 25.0000;
  // the default split puts 50% of R and 80% of X on the H branch
  // resistance 0.0120000;
  // reactance 0.0204000;
  impedance 0.00600000+0.0136000j;
  impedance1 0.0120000+0.00680000j;
  impedance2 0.0120000+0.00680000j;
  shunt_resistance 500.000;
  shunt_reactance 6.94444;
}
object transformer_configuration {
  name "xcon_cimxfmrcode_t5302804c";
  connect_type SINGLE_PHASE_CENTER_TAPPED;
  primary_voltage 7200.00;
  secondary_voltage 120.000;
  power_rating 37.5000;
  // the default split puts 50% of R and 80% of X on the H branch
  // resistance 0.0120000;
  // reactance 0.0204000;
  impedance 0.00600000+0.0136000j;
  impedance1 0.0120000+0.00680000j;
  impedance2 0.0120000+0.00680000j;
  shunt_resistance 500.000;
  shunt_reactance 10.4167;
}
object transformer_configuration {
  name "xcon_cimxfmrcode_t21397121c";
  connect_type SINGLE_PHASE_CENTER_TAPPED;
  primary_voltage 7200.00;
  secondary_voltage 120.000;
  power_rating 15.0000;
  // the default split puts 50% of R and 80% of X on the H branch
  // resistance 0.0120000;
  // reactance 0.0204000;
  impedance 0.00600000+0.0136000j;
  impedance1 0.0120000+0.00680000j;
  impedance2 0.0120000+0.00680000j;
  shunt_resistance 500.000;
  shunt_reactance 4.16667;
}
object transformer_configuration {
  name "xcon_cimxfmrcode_t5323254b";
  connect_type SINGLE_PHASE_CENTER_TAPPED;
  primary_voltage 7200.00;
  secondary_voltage 120.000;
  power_rating 25.0000;
  // the default split puts 50% of R and 80% of X on the H branch
  // resistance 0.0120000;
  // reactance 0.0204000;
  impedance 0.00600000+0.0136000j;
  impedance1 0.0120000+0.00680000j;
  impedance2 0.0120000+0.00680000j;
  shunt_resistance 500.000;
  shunt_reactance 6.94444;
}
object transformer_configuration {
  name "xcon_cimxfmrcode_t5138464c";
  connect_type SINGLE_PHASE_CENTER_TAPPED;
  primary_voltage 7200.00;
  secondary_voltage 120.000;
  power_rating 10.0000;
  // the default split puts 50% of R and 80% of X on the H branch
  // resistance 0.0120000;
  // reactance 0.0204000;
  impedance 0.00600000+0.0136000j;
  impedance1 0.0120000+0.00680000j;
  impedance2 0.0120000+0.00680000j;
  shunt_resistance 500.000;
  shunt_reactance 2.77778;
}
object transformer_configuration {
  name "xcon_cimxfmrcode_t5138379c";
  connect_type SINGLE_PHASE_CENTER_TAPPED;
  primary_voltage 7200.00;
  secondary_voltage 120.000;
  power_rating 25.0000;
  // the default split puts 50% of R and 80% of X on the H branch
  // resistance 0.0120000;
  // reactance 0.0204000;
  impedance 0.00600000+0.0136000j;
  impedance1 0.0120000+0.00680000j;
  impedance2 0.0120000+0.00680000j;
  shunt_resistance 500.000;
  shunt_reactance 6.94444;
}
object transformer_configuration {
  name "xcon_cimxfmrcode_t226308731a";
  connect_type SINGLE_PHASE_CENTER_TAPPED;
  primary_voltage 7200.00;
  secondary_voltage 120.000;
  power_rating 50.0000;
  // the default split puts 50% of R and 80% of X on the H branch
  // resistance 0.0120000;
  // reactance 0.0204000;
  impedance 0.00600000+0.0136000j;
  impedance1 0.0120000+0.00680000j;
  impedance2 0.0120000+0.00680000j;
  shunt_resistance 500.000;
  shunt_reactance 13.8889;
}
object transformer_configuration {
  name "xcon_cimxfmrcode_t5338921a";
  connect_type SINGLE_PHASE_CENTER_TAPPED;
  primary_voltage 7200.00;
  secondary_voltage 120.000;
  power_rating 10.0000;
  // the default split puts 50% of R and 80% of X on the H branch
  // resistance 0.0120000;
  // reactance 0.0204000;
  impedance 0.00600000+0.0136000j;
  impedance1 0.0120000+0.00680000j;
  impedance2 0.0120000+0.00680000j;
  shunt_resistance 500.000;
  shunt_reactance 2.77778;
}
object transformer_configuration {
  name "xcon_cimxfmrcode_t5207288b";
  connect_type SINGLE_PHASE_CENTER_TAPPED;
  primary_voltage 7200.00;
  secondary_voltage 120.000;
  power_rating 10.0000;
  // the default split puts 50% of R and 80% of X on the H branch
  // resistance 0.0120000;
  // reactance 0.0204000;
  impedance 0.00600000+0.0136000j;
  impedance1 0.0120000+0.00680000j;
  impedance2 0.0120000+0.00680000j;
  shunt_resistance 500.000;
  shunt_reactance 2.77778;
}
object transformer_configuration {
  name "xcon_cimxfmrcode_t5323387b";
  connect_type SINGLE_PHASE_CENTER_TAPPED;
  primary_voltage 7200.00;
  secondary_voltage 120.000;
  power_rating 25.0000;
  // the default split puts 50% of R and 80% of X on the H branch
  // resistance 0.0120000;
  // reactance 0.0204000;
  impedance 0.00600000+0.0136000j;
  impedance1 0.0120000+0.00680000j;
  impedance2 0.0120000+0.00680000j;
  shunt_resistance 500.000;
  shunt_reactance 6.94444;
}
object transformer_configuration {
  name "xcon_cimxfmrcode_t227902981a";
  connect_type SINGLE_PHASE_CENTER_TAPPED;
  primary_voltage 7200.00;
  secondary_voltage 120.000;
  power_rating 37.5000;
  // the default split puts 50% of R and 80% of X on the H branch
  // resistance 0.0120000;
  // reactance 0.0204000;
  impedance 0.00600000+0.0136000j;
  impedance1 0.0120000+0.00680000j;
  impedance2 0.0120000+0.00680000j;
  shunt_resistance 500.000;
  shunt_reactance 10.4167;
}
object transformer_configuration {
  name "xcon_cimxfmrcode_t5260501b";
  connect_type SINGLE_PHASE_CENTER_TAPPED;
  primary_voltage 7200.00;
  secondary_voltage 120.000;
  power_rating 25.0000;
  // the default split puts 50% of R and 80% of X on the H branch
  // resistance 0.0120000;
  // reactance 0.0204000;
  impedance 0.00600000+0.0136000j;
  impedance1 0.0120000+0.00680000j;
  impedance2 0.0120000+0.00680000j;
  shunt_resistance 500.000;
  shunt_reactance 6.94444;
}
object transformer_configuration {
  name "xcon_cimxfmrcode_t225571871b";
  connect_type SINGLE_PHASE_CENTER_TAPPED;
  primary_voltage 7200.00;
  secondary_voltage 120.000;
  power_rating 15.0000;
  // the default split puts 50% of R and 80% of X on the H branch
  // resistance 0.0120000;
  // reactance 0.0204000;
  impedance 0.00600000+0.0136000j;
  impedance1 0.0120000+0.00680000j;
  impedance2 0.0120000+0.00680000j;
  shunt_resistance 500.000;
  shunt_reactance 4.16667;
}
object transformer_configuration {
  name "xcon_cimxfmrcode_t5337614b";
  connect_type SINGLE_PHASE_CENTER_TAPPED;
  primary_voltage 7200.00;
  secondary_voltage 120.000;
  power_rating 25.0000;
  // the default split puts 50% of R and 80% of X on the H branch
  // resistance 0.0120000;
  // reactance 0.0204000;
  impedance 0.00600000+0.0136000j;
  impedance1 0.0120000+0.00680000j;
  impedance2 0.0120000+0.00680000j;
  shunt_resistance 500.000;
  shunt_reactance 6.94444;
}
object transformer_configuration {
  name "xcon_cimxfmrcode_t21397645a";
  connect_type SINGLE_PHASE_CENTER_TAPPED;
  primary_voltage 7200.00;
  secondary_voltage 120.000;
  power_rating 25.0000;
  // the default split puts 50% of R and 80% of X on the H branch
  // resistance 0.0120000;
  // reactance 0.0204000;
  impedance 0.00600000+0.0136000j;
  impedance1 0.0120000+0.00680000j;
  impedance2 0.0120000+0.00680000j;
  shunt_resistance 500.000;
  shunt_reactance 6.94444;
}
object transformer_configuration {
  name "xcon_cimxfmrcode_t5391737b";
  connect_type SINGLE_PHASE_CENTER_TAPPED;
  primary_voltage 7200.00;
  secondary_voltage 120.000;
  power_rating 25.0000;
  // the default split puts 50% of R and 80% of X on the H branch
  // resistance 0.0120000;
  // reactance 0.0204000;
  impedance 0.00600000+0.0136000j;
  impedance1 0.0120000+0.00680000j;
  impedance2 0.0120000+0.00680000j;
  shunt_resistance 500.000;
  shunt_reactance 6.94444;
}
object transformer_configuration {
  name "xcon_cimxfmrcode_t28118822a";
  connect_type SINGLE_PHASE_CENTER_TAPPED;
  primary_voltage 7200.00;
  secondary_voltage 120.000;
  power_rating 15.0000;
  // the default split puts 50% of R and 80% of X on the H branch
  // resistance 0.0120000;
  // reactance 0.0204000;
  impedance 0.00600000+0.0136000j;
  impedance1 0.0120000+0.00680000j;
  impedance2 0.0120000+0.00680000j;
  shunt_resistance 500.000;
  shunt_reactance 4.16667;
}
object transformer_configuration {
  name "xcon_cimxfmrcode_t21398563a";
  connect_type SINGLE_PHASE_CENTER_TAPPED;
  primary_voltage 7200.00;
  secondary_voltage 120.000;
  power_rating 25.0000;
  // the default split puts 50% of R and 80% of X on the H branch
  // resistance 0.0120000;
  // reactance 0.0204000;
  impedance 0.00600000+0.0136000j;
  impedance1 0.0120000+0.00680000j;
  impedance2 0.0120000+0.00680000j;
  shunt_resistance 500.000;
  shunt_reactance 6.94444;
}
object transformer_configuration {
  name "xcon_cimxfmrcode_t5260513c";
  connect_type SINGLE_PHASE_CENTER_TAPPED;
  primary_voltage 7200.00;
  secondary_voltage 120.000;
  power_rating 15.0000;
  // the default split puts 50% of R and 80% of X on the H branch
  // resistance 0.0120000;
  // reactance 0.0204000;
  impedance 0.00600000+0.0136000j;
  impedance1 0.0120000+0.00680000j;
  impedance2 0.0120000+0.00680000j;
  shunt_resistance 500.000;
  shunt_reactance 4.16667;
}
object transformer_configuration {
  name "xcon_cimxfmrcode_t5391991a";
  connect_type SINGLE_PHASE_CENTER_TAPPED;
  primary_voltage 7200.00;
  secondary_voltage 120.000;
  power_rating 15.0000;
  // the default split puts 50% of R and 80% of X on the H branch
  // resistance 0.0120000;
  // reactance 0.0204000;
  impedance 0.00600000+0.0136000j;
  impedance1 0.0120000+0.00680000j;
  impedance2 0.0120000+0.00680000j;
  shunt_resistance 500.000;
  shunt_reactance 4.16667;
}
object transformer_configuration {
  name "xcon_cimxfmrcode_t5338987a";
  connect_type SINGLE_PHASE_CENTER_TAPPED;
  primary_voltage 7200.00;
  secondary_voltage 120.000;
  power_rating 10.0000;
  // the default split puts 50% of R and 80% of X on the H branch
  // resistance 0.0120000;
  // reactance 0.0204000;
  impedance 0.00600000+0.0136000j;
  impedance1 0.0120000+0.00680000j;
  impedance2 0.0120000+0.00680000j;
  shunt_resistance 500.000;
  shunt_reactance 2.77778;
}
object transformer_configuration {
  name "xcon_cimxfmrcode_t21393454b";
  connect_type SINGLE_PHASE_CENTER_TAPPED;
  primary_voltage 7200.00;
  secondary_voltage 120.000;
  power_rating 37.5000;
  // the default split puts 50% of R and 80% of X on the H branch
  // resistance 0.0120000;
  // reactance 0.0204000;
  impedance 0.00600000+0.0136000j;
  impedance1 0.0120000+0.00680000j;
  impedance2 0.0120000+0.00680000j;
  shunt_resistance 500.000;
  shunt_reactance 10.4167;
}
object transformer_configuration {
  name "xcon_cimxfmrcode_t5223655c";
  connect_type SINGLE_PHASE_CENTER_TAPPED;
  primary_voltage 7200.00;
  secondary_voltage 120.000;
  power_rating 15.0000;
  // the default split puts 50% of R and 80% of X on the H branch
  // resistance 0.0120000;
  // reactance 0.0204000;
  impedance 0.00600000+0.0136000j;
  impedance1 0.0120000+0.00680000j;
  impedance2 0.0120000+0.00680000j;
  shunt_resistance 500.000;
  shunt_reactance 4.16667;
}
object transformer_configuration {
  name "xcon_cimxfmrcode_t5293672a";
  connect_type SINGLE_PHASE_CENTER_TAPPED;
  primary_voltage 7200.00;
  secondary_voltage 120.000;
  power_rating 15.0000;
  // the default split puts 50% of R and 80% of X on the H branch
  // resistance 0.0120000;
  // reactance 0.0204000;
  impedance 0.00600000+0.0136000j;
  impedance1 0.0120000+0.00680000j;
  impedance2 0.0120000+0.00680000j;
  shunt_resistance 500.000;
  shunt_reactance 4.16667;
}
object transformer_configuration {
  name "xcon_cimxfmrcode_t5207291c";
  connect_type SINGLE_PHASE_CENTER_TAPPED;
  primary_voltage 7200.00;
  secondary_voltage 120.000;
  power_rating 25.0000;
  // the default split puts 50% of R and 80% of X on the H branch
  // resistance 0.0120000;
  // reactance 0.0204000;
  impedance 0.00600000+0.0136000j;
  impedance1 0.0120000+0.00680000j;
  impedance2 0.0120000+0.00680000j;
  shunt_resistance 500.000;
  shunt_reactance 6.94444;
}
object transformer_configuration {
  name "xcon_cimxfmrcode_t5302471a";
  connect_type SINGLE_PHASE_CENTER_TAPPED;
  primary_voltage 7200.00;
  secondary_voltage 120.000;
  power_rating 37.5000;
  // the default split puts 50% of R and 80% of X on the H branch
  // resistance 0.0120000;
  // reactance 0.0204000;
  impedance 0.00600000+0.0136000j;
  impedance1 0.0120000+0.00680000j;
  impedance2 0.0120000+0.00680000j;
  shunt_resistance 500.000;
  shunt_reactance 10.4167;
}
object transformer_configuration {
  name "xcon_cimxfmrcode_t5260467a";
  connect_type SINGLE_PHASE_CENTER_TAPPED;
  primary_voltage 7200.00;
  secondary_voltage 120.000;
  power_rating 15.0000;
  // the default split puts 50% of R and 80% of X on the H branch
  // resistance 0.0120000;
  // reactance 0.0204000;
  impedance 0.00600000+0.0136000j;
  impedance1 0.0120000+0.00680000j;
  impedance2 0.0120000+0.00680000j;
  shunt_resistance 500.000;
  shunt_reactance 4.16667;
}
object transformer_configuration {
  name "xcon_cimxfmrcode_t21400253b";
  connect_type SINGLE_PHASE_CENTER_TAPPED;
  primary_voltage 7200.00;
  secondary_voltage 120.000;
  power_rating 100.000;
  // the default split puts 50% of R and 80% of X on the H branch
  // resistance 0.0120000;
  // reactance 0.0204000;
  impedance 0.00600000+0.0136000j;
  impedance1 0.0120000+0.00680000j;
  impedance2 0.0120000+0.00680000j;
  shunt_resistance 500.000;
  shunt_reactance 27.7778;
}
object transformer_configuration {
  name "xcon_cimxfmrcode_t228665517c";
  connect_type SINGLE_PHASE_CENTER_TAPPED;
  primary_voltage 7200.00;
  secondary_voltage 120.000;
  power_rating 37.5000;
  // the default split puts 50% of R and 80% of X on the H branch
  // resistance 0.0120000;
  // reactance 0.0204000;
  impedance 0.00600000+0.0136000j;
  impedance1 0.0120000+0.00680000j;
  impedance2 0.0120000+0.00680000j;
  shunt_resistance 500.000;
  shunt_reactance 10.4167;
}
object transformer_configuration {
  name "xcon_cimxfmrcode_t5337654c";
  connect_type SINGLE_PHASE_CENTER_TAPPED;
  primary_voltage 7200.00;
  secondary_voltage 120.000;
  power_rating 15.0000;
  // the default split puts 50% of R and 80% of X on the H branch
  // resistance 0.0120000;
  // reactance 0.0204000;
  impedance 0.00600000+0.0136000j;
  impedance1 0.0120000+0.00680000j;
  impedance2 0.0120000+0.00680000j;
  shunt_resistance 500.000;
  shunt_reactance 4.16667;
}
object transformer_configuration {
  name "xcon_cimxfmrcode_t227447984c";
  connect_type SINGLE_PHASE_CENTER_TAPPED;
  primary_voltage 7200.00;
  secondary_voltage 120.000;
  power_rating 75.0000;
  // the default split puts 50% of R and 80% of X on the H branch
  // resistance 0.0120000;
  // reactance 0.0204000;
  impedance 0.00600000+0.0136000j;
  impedance1 0.0120000+0.00680000j;
  impedance2 0.0120000+0.00680000j;
  shunt_resistance 500.000;
  shunt_reactance 20.8333;
}
object transformer_configuration {
  name "xcon_cimxfmrcode_t21400185a";
  connect_type SINGLE_PHASE_CENTER_TAPPED;
  primary_voltage 7200.00;
  secondary_voltage 120.000;
  power_rating 25.0000;
  // the default split puts 50% of R and 80% of X on the H branch
  // resistance 0.0120000;
  // reactance 0.0204000;
  impedance 0.00600000+0.0136000j;
  impedance1 0.0120000+0.00680000j;
  impedance2 0.0120000+0.00680000j;
  shunt_resistance 500.000;
  shunt_reactance 6.94444;
}
object transformer_configuration {
  name "xcon_cimxfmrcode_t5260514c";
  connect_type SINGLE_PHASE_CENTER_TAPPED;
  primary_voltage 7200.00;
  secondary_voltage 120.000;
  power_rating 15.0000;
  // the default split puts 50% of R and 80% of X on the H branch
  // resistance 0.0120000;
  // reactance 0.0204000;
  impedance 0.00600000+0.0136000j;
  impedance1 0.0120000+0.00680000j;
  impedance2 0.0120000+0.00680000j;
  shunt_resistance 500.000;
  shunt_reactance 4.16667;
}
object transformer_configuration {
  name "xcon_cimxfmrcode_t5302637a";
  connect_type SINGLE_PHASE_CENTER_TAPPED;
  primary_voltage 7200.00;
  secondary_voltage 120.000;
  power_rating 15.0000;
  // the default split puts 50% of R and 80% of X on the H branch
  // resistance 0.0120000;
  // reactance 0.0204000;
  impedance 0.00600000+0.0136000j;
  impedance1 0.0120000+0.00680000j;
  impedance2 0.0120000+0.00680000j;
  shunt_resistance 500.000;
  shunt_reactance 4.16667;
}
object transformer_configuration {
  name "xcon_cimxfmrcode_t5247126b";
  connect_type SINGLE_PHASE_CENTER_TAPPED;
  primary_voltage 7200.00;
  secondary_voltage 120.000;
  power_rating 10.0000;
  // the default split puts 50% of R and 80% of X on the H branch
  // resistance 0.0120000;
  // reactance 0.0204000;
  impedance 0.00600000+0.0136000j;
  impedance1 0.0120000+0.00680000j;
  impedance2 0.0120000+0.00680000j;
  shunt_resistance 500.000;
  shunt_reactance 2.77778;
}
object transformer_configuration {
  name "xcon_cimxfmrcode_t5339016b";
  connect_type SINGLE_PHASE_CENTER_TAPPED;
  primary_voltage 7200.00;
  secondary_voltage 120.000;
  power_rating 25.0000;
  // the default split puts 50% of R and 80% of X on the H branch
  // resistance 0.0120000;
  // reactance 0.0204000;
  impedance 0.00600000+0.0136000j;
  impedance1 0.0120000+0.00680000j;
  impedance2 0.0120000+0.00680000j;
  shunt_resistance 500.000;
  shunt_reactance 6.94444;
}
object transformer_configuration {
  name "xcon_cimxfmrcode_t226109079a";
  connect_type SINGLE_PHASE_CENTER_TAPPED;
  primary_voltage 7200.00;
  secondary_voltage 120.000;
  power_rating 37.5000;
  // the default split puts 50% of R and 80% of X on the H branch
  // resistance 0.0120000;
  // reactance 0.0204000;
  impedance 0.00600000+0.0136000j;
  impedance1 0.0120000+0.00680000j;
  impedance2 0.0120000+0.00680000j;
  shunt_resistance 500.000;
  shunt_reactance 10.4167;
}
object transformer_configuration {
  name "xcon_cimxfmrcode_t5260458b";
  connect_type SINGLE_PHASE_CENTER_TAPPED;
  primary_voltage 7200.00;
  secondary_voltage 120.000;
  power_rating 10.0000;
  // the default split puts 50% of R and 80% of X on the H branch
  // resistance 0.0120000;
  // reactance 0.0204000;
  impedance 0.00600000+0.0136000j;
  impedance1 0.0120000+0.00680000j;
  impedance2 0.0120000+0.00680000j;
  shunt_resistance 500.000;
  shunt_reactance 2.77778;
}
object transformer_configuration {
  name "xcon_cimxfmrcode_t226194419c";
  connect_type SINGLE_PHASE_CENTER_TAPPED;
  primary_voltage 7200.00;
  secondary_voltage 120.000;
  power_rating 25.0000;
  // the default split puts 50% of R and 80% of X on the H branch
  // resistance 0.0120000;
  // reactance 0.0204000;
  impedance 0.00600000+0.0136000j;
  impedance1 0.0120000+0.00680000j;
  impedance2 0.0120000+0.00680000j;
  shunt_resistance 500.000;
  shunt_reactance 6.94444;
}
object transformer_configuration {
  name "xcon_cimxfmrcode_t5325473b";
  connect_type SINGLE_PHASE_CENTER_TAPPED;
  primary_voltage 7200.00;
  secondary_voltage 120.000;
  power_rating 15.0000;
  // the default split puts 50% of R and 80% of X on the H branch
  // resistance 0.0120000;
  // reactance 0.0204000;
  impedance 0.00600000+0.0136000j;
  impedance1 0.0120000+0.00680000j;
  impedance2 0.0120000+0.00680000j;
  shunt_resistance 500.000;
  shunt_reactance 4.16667;
}
object transformer_configuration {
  name "xcon_cimxfmrcode_t5323243b";
  connect_type SINGLE_PHASE_CENTER_TAPPED;
  primary_voltage 7200.00;
  secondary_voltage 120.000;
  power_rating 15.0000;
  // the default split puts 50% of R and 80% of X on the H branch
  // resistance 0.0120000;
  // reactance 0.0204000;
  impedance 0.00600000+0.0136000j;
  impedance1 0.0120000+0.00680000j;
  impedance2 0.0120000+0.00680000j;
  shunt_resistance 500.000;
  shunt_reactance 4.16667;
}
object transformer_configuration {
  name "xcon_cimxfmrcode_t5138574a";
  connect_type SINGLE_PHASE_CENTER_TAPPED;
  primary_voltage 7200.00;
  secondary_voltage 120.000;
  power_rating 25.0000;
  // the default split puts 50% of R and 80% of X on the H branch
  // resistance 0.0120000;
  // reactance 0.0204000;
  impedance 0.00600000+0.0136000j;
  impedance1 0.0120000+0.00680000j;
  impedance2 0.0120000+0.00680000j;
  shunt_resistance 500.000;
  shunt_reactance 6.94444;
}
object transformer_configuration {
  name "xcon_cimxfmrcode_t5337630c";
  connect_type SINGLE_PHASE_CENTER_TAPPED;
  primary_voltage 7200.00;
  secondary_voltage 120.000;
  power_rating 15.0000;
  // the default split puts 50% of R and 80% of X on the H branch
  // resistance 0.0120000;
  // reactance 0.0204000;
  impedance 0.00600000+0.0136000j;
  impedance1 0.0120000+0.00680000j;
  impedance2 0.0120000+0.00680000j;
  shunt_resistance 500.000;
  shunt_reactance 4.16667;
}
object transformer_configuration {
  name "xcon_cimxfmrcode_t5260643a";
  connect_type SINGLE_PHASE_CENTER_TAPPED;
  primary_voltage 7200.00;
  secondary_voltage 120.000;
  power_rating 50.0000;
  // the default split puts 50% of R and 80% of X on the H branch
  // resistance 0.0120000;
  // reactance 0.0204000;
  impedance 0.00600000+0.0136000j;
  impedance1 0.0120000+0.00680000j;
  impedance2 0.0120000+0.00680000j;
  shunt_resistance 500.000;
  shunt_reactance 13.8889;
}
object transformer_configuration {
  name "xcon_cimxfmrcode_t5391981a";
  connect_type SINGLE_PHASE_CENTER_TAPPED;
  primary_voltage 7200.00;
  secondary_voltage 120.000;
  power_rating 15.0000;
  // the default split puts 50% of R and 80% of X on the H branch
  // resistance 0.0120000;
  // reactance 0.0204000;
  impedance 0.00600000+0.0136000j;
  impedance1 0.0120000+0.00680000j;
  impedance2 0.0120000+0.00680000j;
  shunt_resistance 500.000;
  shunt_reactance 4.16667;
}
object transformer_configuration {
  name "xcon_cimxfmrcode_t5338926a";
  connect_type SINGLE_PHASE_CENTER_TAPPED;
  primary_voltage 7200.00;
  secondary_voltage 120.000;
  power_rating 15.0000;
  // the default split puts 50% of R and 80% of X on the H branch
  // resistance 0.0120000;
  // reactance 0.0204000;
  impedance 0.00600000+0.0136000j;
  impedance1 0.0120000+0.00680000j;
  impedance2 0.0120000+0.00680000j;
  shunt_resistance 500.000;
  shunt_reactance 4.16667;
}
object transformer_configuration {
  name "xcon_cimxfmrcode_t5337668b";
  connect_type SINGLE_PHASE_CENTER_TAPPED;
  primary_voltage 7200.00;
  secondary_voltage 120.000;
  power_rating 37.5000;
  // the default split puts 50% of R and 80% of X on the H branch
  // resistance 0.0120000;
  // reactance 0.0204000;
  impedance 0.00600000+0.0136000j;
  impedance1 0.0120000+0.00680000j;
  impedance2 0.0120000+0.00680000j;
  shunt_resistance 500.000;
  shunt_reactance 10.4167;
}
object transformer_configuration {
  name "xcon_cimxfmrcode_t5293660b";
  connect_type SINGLE_PHASE_CENTER_TAPPED;
  primary_voltage 7200.00;
  secondary_voltage 120.000;
  power_rating 25.0000;
  // the default split puts 50% of R and 80% of X on the H branch
  // resistance 0.0120000;
  // reactance 0.0204000;
  impedance 0.00600000+0.0136000j;
  impedance1 0.0120000+0.00680000j;
  impedance2 0.0120000+0.00680000j;
  shunt_resistance 500.000;
  shunt_reactance 6.94444;
}
object transformer_configuration {
  name "xcon_cimxfmrcode_t5274987c";
  connect_type SINGLE_PHASE_CENTER_TAPPED;
  primary_voltage 7200.00;
  secondary_voltage 120.000;
  power_rating 15.0000;
  // the default split puts 50% of R and 80% of X on the H branch
  // resistance 0.0120000;
  // reactance 0.0204000;
  impedance 0.00600000+0.0136000j;
  impedance1 0.0120000+0.00680000j;
  impedance2 0.0120000+0.00680000j;
  shunt_resistance 500.000;
  shunt_reactance 4.16667;
}
object transformer_configuration {
  name "xcon_cimxfmrcode_t5355618b";
  connect_type SINGLE_PHASE_CENTER_TAPPED;
  primary_voltage 7200.00;
  secondary_voltage 120.000;
  power_rating 25.0000;
  // the default split puts 50% of R and 80% of X on the H branch
  // resistance 0.0120000;
  // reactance 0.0204000;
  impedance 0.00600000+0.0136000j;
  impedance1 0.0120000+0.00680000j;
  impedance2 0.0120000+0.00680000j;
  shunt_resistance 500.000;
  shunt_reactance 6.94444;
}
object transformer_configuration {
  name "xcon_cimxfmrcode_t226308710b";
  connect_type SINGLE_PHASE_CENTER_TAPPED;
  primary_voltage 7200.00;
  secondary_voltage 120.000;
  power_rating 75.0000;
  // the default split puts 50% of R and 80% of X on the H branch
  // resistance 0.0120000;
  // reactance 0.0204000;
  impedance 0.00600000+0.0136000j;
  impedance1 0.0120000+0.00680000j;
  impedance2 0.0120000+0.00680000j;
  shunt_resistance 500.000;
  shunt_reactance 20.8333;
}
object transformer_configuration {
  name "xcon_cimxfmrcode_t5338981b";
  connect_type SINGLE_PHASE_CENTER_TAPPED;
  primary_voltage 7200.00;
  secondary_voltage 120.000;
  power_rating 25.0000;
  // the default split puts 50% of R and 80% of X on the H branch
  // resistance 0.0120000;
  // reactance 0.0204000;
  impedance 0.00600000+0.0136000j;
  impedance1 0.0120000+0.00680000j;
  impedance2 0.0120000+0.00680000j;
  shunt_resistance 500.000;
  shunt_reactance 6.94444;
}
object transformer_configuration {
  name "xcon_cimxfmrcode_t5302367b";
  connect_type SINGLE_PHASE_CENTER_TAPPED;
  primary_voltage 7200.00;
  secondary_voltage 120.000;
  power_rating 15.0000;
  // the default split puts 50% of R and 80% of X on the H branch
  // resistance 0.0120000;
  // reactance 0.0204000;
  impedance 0.00600000+0.0136000j;
  impedance1 0.0120000+0.00680000j;
  impedance2 0.0120000+0.00680000j;
  shunt_resistance 500.000;
  shunt_reactance 4.16667;
}
object transformer_configuration {
  name "xcon_cimxfmrcode_t5338922b";
  connect_type SINGLE_PHASE_CENTER_TAPPED;
  primary_voltage 7200.00;
  secondary_voltage 120.000;
  power_rating 25.0000;
  // the default split puts 50% of R and 80% of X on the H branch
  // resistance 0.0120000;
  // reactance 0.0204000;
  impedance 0.00600000+0.0136000j;
  impedance1 0.0120000+0.00680000j;
  impedance2 0.0120000+0.00680000j;
  shunt_resistance 500.000;
  shunt_reactance 6.94444;
}
object transformer_configuration {
  name "xcon_cimxfmrcode_vreg3_c";
  connect_type SINGLE_PHASE;
  primary_voltage 7200.00;
  secondary_voltage 7200.00;
  power_rating 10000.0;
  resistance 0.000100000;
  reactance 0.00100000;
}
object transformer_configuration {
  name "xcon_cimxfmrcode_t226193702c";
  connect_type SINGLE_PHASE_CENTER_TAPPED;
  primary_voltage 7200.00;
  secondary_voltage 120.000;
  power_rating 15.0000;
  // the default split puts 50% of R and 80% of X on the H branch
  // resistance 0.0120000;
  // reactance 0.0204000;
  impedance 0.00600000+0.0136000j;
  impedance1 0.0120000+0.00680000j;
  impedance2 0.0120000+0.00680000j;
  shunt_resistance 500.000;
  shunt_reactance 4.16667;
}
object transformer_configuration {
  name "xcon_cimxfmrcode_t5391973c";
  connect_type SINGLE_PHASE_CENTER_TAPPED;
  primary_voltage 7200.00;
  secondary_voltage 120.000;
  power_rating 15.0000;
  // the default split puts 50% of R and 80% of X on the H branch
  // resistance 0.0120000;
  // reactance 0.0204000;
  impedance 0.00600000+0.0136000j;
  impedance1 0.0120000+0.00680000j;
  impedance2 0.0120000+0.00680000j;
  shunt_resistance 500.000;
  shunt_reactance 4.16667;
}
object transformer_configuration {
  name "xcon_cimxfmrcode_t21467859b";
  connect_type SINGLE_PHASE_CENTER_TAPPED;
  primary_voltage 7200.00;
  secondary_voltage 120.000;
  power_rating 37.5000;
  // the default split puts 50% of R and 80% of X on the H branch
  // resistance 0.0120000;
  // reactance 0.0204000;
  impedance 0.00600000+0.0136000j;
  impedance1 0.0120000+0.00680000j;
  impedance2 0.0120000+0.00680000j;
  shunt_resistance 500.000;
  shunt_reactance 10.4167;
}
object transformer_configuration {
  name "xcon_cimxfmrcode_t5293655a";
  connect_type SINGLE_PHASE_CENTER_TAPPED;
  primary_voltage 7200.00;
  secondary_voltage 120.000;
  power_rating 25.0000;
  // the default split puts 50% of R and 80% of X on the H branch
  // resistance 0.0120000;
  // reactance 0.0204000;
  impedance 0.00600000+0.0136000j;
  impedance1 0.0120000+0.00680000j;
  impedance2 0.0120000+0.00680000j;
  shunt_resistance 500.000;
  shunt_reactance 6.94444;
}
object transformer_configuration {
  name "xcon_cimxfmrcode_t227411650c";
  connect_type SINGLE_PHASE_CENTER_TAPPED;
  primary_voltage 7200.00;
  secondary_voltage 120.000;
  power_rating 25.0000;
  // the default split puts 50% of R and 80% of X on the H branch
  // resistance 0.0120000;
  // reactance 0.0204000;
  impedance 0.00600000+0.0136000j;
  impedance1 0.0120000+0.00680000j;
  impedance2 0.0120000+0.00680000j;
  shunt_resistance 500.000;
  shunt_reactance 6.94444;
}
object transformer_configuration {
  name "xcon_cimxfmrcode_t5293490c";
  connect_type SINGLE_PHASE_CENTER_TAPPED;
  primary_voltage 7200.00;
  secondary_voltage 120.000;
  power_rating 25.0000;
  // the default split puts 50% of R and 80% of X on the H branch
  // resistance 0.0120000;
  // reactance 0.0204000;
  impedance 0.00600000+0.0136000j;
  impedance1 0.0120000+0.00680000j;
  impedance2 0.0120000+0.00680000j;
  shunt_resistance 500.000;
  shunt_reactance 6.94444;
}
object transformer_configuration {
  name "xcon_cimxfmrcode_t5346639c";
  connect_type SINGLE_PHASE_CENTER_TAPPED;
  primary_voltage 7200.00;
  secondary_voltage 120.000;
  power_rating 15.0000;
  // the default split puts 50% of R and 80% of X on the H branch
  // resistance 0.0120000;
  // reactance 0.0204000;
  impedance 0.00600000+0.0136000j;
  impedance1 0.0120000+0.00680000j;
  impedance2 0.0120000+0.00680000j;
  shunt_resistance 500.000;
  shunt_reactance 4.16667;
}
object transformer_configuration {
  name "xcon_cimxfmrcode_t21386552b";
  connect_type SINGLE_PHASE_CENTER_TAPPED;
  primary_voltage 7200.00;
  secondary_voltage 120.000;
  power_rating 15.0000;
  // the default split puts 50% of R and 80% of X on the H branch
  // resistance 0.0120000;
  // reactance 0.0204000;
  impedance 0.00600000+0.0136000j;
  impedance1 0.0120000+0.00680000j;
  impedance2 0.0120000+0.00680000j;
  shunt_resistance 500.000;
  shunt_reactance 4.16667;
}
object transformer_configuration {
  name "xcon_cimxfmrcode_t5321851b";
  connect_type SINGLE_PHASE_CENTER_TAPPED;
  primary_voltage 7200.00;
  secondary_voltage 120.000;
  power_rating 15.0000;
  // the default split puts 50% of R and 80% of X on the H branch
  // resistance 0.0120000;
  // reactance 0.0204000;
  impedance 0.00600000+0.0136000j;
  impedance1 0.0120000+0.00680000j;
  impedance2 0.0120000+0.00680000j;
  shunt_resistance 500.000;
  shunt_reactance 4.16667;
}
object transformer_configuration {
  name "xcon_cimxfmrcode_t5391765b";
  connect_type SINGLE_PHASE_CENTER_TAPPED;
  primary_voltage 7200.00;
  secondary_voltage 120.000;
  power_rating 25.0000;
  // the default split puts 50% of R and 80% of X on the H branch
  // resistance 0.0120000;
  // reactance 0.0204000;
  impedance 0.00600000+0.0136000j;
  impedance1 0.0120000+0.00680000j;
  impedance2 0.0120000+0.00680000j;
  shunt_resistance 500.000;
  shunt_reactance 6.94444;
}
object transformer_configuration {
  name "xcon_cimxfmrcode_t5338934b";
  connect_type SINGLE_PHASE_CENTER_TAPPED;
  primary_voltage 7200.00;
  secondary_voltage 120.000;
  power_rating 15.0000;
  // the default split puts 50% of R and 80% of X on the H branch
  // resistance 0.0120000;
  // reactance 0.0204000;
  impedance 0.00600000+0.0136000j;
  impedance1 0.0120000+0.00680000j;
  impedance2 0.0120000+0.00680000j;
  shunt_resistance 500.000;
  shunt_reactance 4.16667;
}
object transformer_configuration {
  name "xcon_cimxfmrcode_vreg2_c";
  connect_type SINGLE_PHASE;
  primary_voltage 7200.00;
  secondary_voltage 7200.00;
  power_rating 10000.0;
  resistance 0.000100000;
  reactance 0.00100000;
}
object transformer_configuration {
  name "xcon_cimxfmrcode_t5339021a";
  connect_type SINGLE_PHASE_CENTER_TAPPED;
  primary_voltage 7200.00;
  secondary_voltage 120.000;
  power_rating 25.0000;
  // the default split puts 50% of R and 80% of X on the H branch
  // resistance 0.0120000;
  // reactance 0.0204000;
  impedance 0.00600000+0.0136000j;
  impedance1 0.0120000+0.00680000j;
  impedance2 0.0120000+0.00680000j;
  shunt_resistance 500.000;
  shunt_reactance 6.94444;
}
object transformer_configuration {
  name "xcon_cimxfmrcode_t5138405c";
  connect_type SINGLE_PHASE_CENTER_TAPPED;
  primary_voltage 7200.00;
  secondary_voltage 120.000;
  power_rating 37.5000;
  // the default split puts 50% of R and 80% of X on the H branch
  // resistance 0.0120000;
  // reactance 0.0204000;
  impedance 0.00600000+0.0136000j;
  impedance1 0.0120000+0.00680000j;
  impedance2 0.0120000+0.00680000j;
  shunt_resistance 500.000;
  shunt_reactance 10.4167;
}
object transformer_configuration {
  name "xcon_cimxfmrcode_t225533675b";
  connect_type SINGLE_PHASE_CENTER_TAPPED;
  primary_voltage 7200.00;
  secondary_voltage 120.000;
  power_rating 37.5000;
  // the default split puts 50% of R and 80% of X on the H branch
  // resistance 0.0120000;
  // reactance 0.0204000;
  impedance 0.00600000+0.0136000j;
  impedance1 0.0120000+0.00680000j;
  impedance2 0.0120000+0.00680000j;
  shunt_resistance 500.000;
  shunt_reactance 10.4167;
}
object transformer_configuration {
  name "xcon_cimxfmrcode_t28127390c";
  connect_type SINGLE_PHASE_CENTER_TAPPED;
  primary_voltage 7200.00;
  secondary_voltage 120.000;
  power_rating 15.0000;
  // the default split puts 50% of R and 80% of X on the H branch
  // resistance 0.0120000;
  // reactance 0.0204000;
  impedance 0.00600000+0.0136000j;
  impedance1 0.0120000+0.00680000j;
  impedance2 0.0120000+0.00680000j;
  shunt_resistance 500.000;
  shunt_reactance 4.16667;
}
object transformer_configuration {
  name "xcon_cimxfmrcode_t21389761b";
  connect_type SINGLE_PHASE_CENTER_TAPPED;
  primary_voltage 7200.00;
  secondary_voltage 120.000;
  power_rating 25.0000;
  // the default split puts 50% of R and 80% of X on the H branch
  // resistance 0.0120000;
  // reactance 0.0204000;
  impedance 0.00600000+0.0136000j;
  impedance1 0.0120000+0.00680000j;
  impedance2 0.0120000+0.00680000j;
  shunt_resistance 500.000;
  shunt_reactance 6.94444;
}
object transformer_configuration {
  name "xcon_cimxfmrcode_t227653310c";
  connect_type SINGLE_PHASE_CENTER_TAPPED;
  primary_voltage 7200.00;
  secondary_voltage 120.000;
  power_rating 25.0000;
  // the default split puts 50% of R and 80% of X on the H branch
  // resistance 0.0120000;
  // reactance 0.0204000;
  impedance 0.00600000+0.0136000j;
  impedance1 0.0120000+0.00680000j;
  impedance2 0.0120000+0.00680000j;
  shunt_resistance 500.000;
  shunt_reactance 6.94444;
}
object transformer_configuration {
  name "xcon_cimxfmrcode_t5325474b";
  connect_type SINGLE_PHASE_CENTER_TAPPED;
  primary_voltage 7200.00;
  secondary_voltage 120.000;
  power_rating 25.0000;
  // the default split puts 50% of R and 80% of X on the H branch
  // resistance 0.0120000;
  // reactance 0.0204000;
  impedance 0.00600000+0.0136000j;
  impedance1 0.0120000+0.00680000j;
  impedance2 0.0120000+0.00680000j;
  shunt_resistance 500.000;
  shunt_reactance 6.94444;
}
object transformer_configuration {
  name "xcon_cimxfmrcode_t225897943c";
  connect_type SINGLE_PHASE_CENTER_TAPPED;
  primary_voltage 7200.00;
  secondary_voltage 120.000;
  power_rating 50.0000;
  // the default split puts 50% of R and 80% of X on the H branch
  // resistance 0.0120000;
  // reactance 0.0204000;
  impedance 0.00600000+0.0136000j;
  impedance1 0.0120000+0.00680000j;
  impedance2 0.0120000+0.00680000j;
  shunt_resistance 500.000;
  shunt_reactance 13.8889;
}
object transformer_configuration {
  name "xcon_cimxfmrcode_t28150189a";
  connect_type SINGLE_PHASE_CENTER_TAPPED;
  primary_voltage 7200.00;
  secondary_voltage 120.000;
  power_rating 25.0000;
  // the default split puts 50% of R and 80% of X on the H branch
  // resistance 0.0120000;
  // reactance 0.0204000;
  impedance 0.00600000+0.0136000j;
  impedance1 0.0120000+0.00680000j;
  impedance2 0.0120000+0.00680000j;
  shunt_resistance 500.000;
  shunt_reactance 6.94444;
}
object transformer_configuration {
  name "xcon_cimxfmrcode_t226308729b";
  connect_type SINGLE_PHASE_CENTER_TAPPED;
  primary_voltage 7200.00;
  secondary_voltage 120.000;
  power_rating 75.0000;
  // the default split puts 50% of R and 80% of X on the H branch
  // resistance 0.0120000;
  // reactance 0.0204000;
  impedance 0.00600000+0.0136000j;
  impedance1 0.0120000+0.00680000j;
  impedance2 0.0120000+0.00680000j;
  shunt_resistance 500.000;
  shunt_reactance 20.8333;
}
...